80

C         -5.00676        0.22363       -0.47951
C         -6.46049       -0.18282       -0.64873
C         -7.40843        0.77782        0.08593
H         -6.62289       -1.20151       -0.27560
H         -6.70075       -0.18756       -1.71983
C         -4.76262        1.62263       -0.82403
C         -5.66033        2.61214       -0.12101
C         -7.13748        2.24042       -0.27730
H         -5.50777        3.62760       -0.50671
H         -5.39392        2.64200        0.94317
H         -7.44324        2.41458       -1.31676
H         -7.73718        2.90233        0.35835
O         -7.30565        0.59962        1.50091
H         -8.44247        0.53098       -0.17850
C         -4.09540       -0.65137       -0.00899
C         -3.85908        1.99640       -1.74356
H         -3.24385        1.26916       -2.26591
H         -3.70994        3.04016       -2.00071
C         -2.70750       -0.36777        0.29040
H         -4.43498       -1.66229        0.20000
C         -1.75223       -1.25667        0.62523
H         -2.43733        0.68397        0.24123
C         -1.93245       -2.75934        0.75075
C         -0.91131       -3.53922       -0.08812
H         -2.93291       -3.09354        0.46490
H         -1.80938       -3.03205        1.80702
C          0.53684       -3.06456        0.11671
H         -1.17782       -3.45998       -1.14902
H         -0.97782       -4.60437        0.16407
C          0.68213       -1.53650       -0.06066
H          1.17790       -3.60989       -0.58122
H          0.85914       -3.35379        1.12537
C         -0.31919       -0.85797        0.91690
H         -0.11637       -1.22669        1.93682
C          0.12247        0.60338        0.91967
H         -6.36126        0.63100        1.73762
C          1.64950        0.53426        0.81404
H         -0.19490        1.12546        1.82848
H         -0.27466        1.16115        0.06446
C          2.02189       -0.93739        0.46634
H          2.11599        0.82810        1.76141
H          1.99077        1.23992        0.04797
H          2.25845       -1.43817        1.41832
C          3.28422       -1.01459       -0.43127
C          0.43260       -1.14773       -1.53888
H          0.61730       -0.08497       -1.72568
H         -0.59441       -1.35094       -1.85686
H          1.08956       -1.71183       -2.20890
H          3.08454       -0.49135       -1.37521
C          3.70280       -2.44436       -0.77631
C          4.45462       -0.33995        0.25761
C          5.08722        0.73888       -0.23190
H          4.77895       -0.76987        1.20399
H          4.76112        1.16937       -1.17750
C          6.24679        1.42350        0.45875
C          5.80649        2.84592        0.82451
C          7.52328        1.40010       -0.42787
H          6.46956        0.89840        1.39781
H          7.30657        1.90324       -1.38005
C          7.96222       -0.03593       -0.75060
C          8.69676        2.13655        0.22856
H          5.68257        3.46886       -0.06850
H          6.53570        3.33141        1.48047
H          4.85132        2.83715        1.36291
H          7.20202       -0.56944       -1.32968
H          8.15623       -0.60487        0.16512
H          8.87971       -0.03653       -1.34915
H          8.49203        3.20686        0.32649
H          9.60501        2.04029       -0.37642
H          8.90993        1.73369        1.22440
H          3.00959       -2.89880       -1.48819
H          3.74808       -3.07766        0.11646
H          4.69105       -2.46439       -1.25120
C         13.20881       -1.00722        7.76556
C         14.47657       -1.34861        7.51944
H         12.96892       -0.20774        8.45952
H         12.38600       -1.52062        7.27803
H         15.29940       -0.83530        8.00706
H         14.71653       -2.14816        6.82559
Li        -4.17958        3.77227        9.56653
